Version 4
SHEET 1 1492 992
WIRE -160 176 -256 176
WIRE 0 176 -80 176
WIRE 80 176 0 176
WIRE 208 176 160 176
WIRE 368 176 304 176
WIRE 480 176 480 144
WIRE 480 176 368 176
WIRE -256 224 -256 176
WIRE 0 224 0 176
WIRE 368 224 368 176
WIRE 480 224 480 176
WIRE -256 352 -256 304
WIRE 0 352 0 288
WIRE 0 352 -256 352
WIRE 368 352 368 288
WIRE 368 352 0 352
WIRE 480 352 480 304
WIRE 480 352 368 352
WIRE 368 384 368 352
WIRE 256 464 256 192
WIRE 400 464 256 464
WIRE 400 496 400 464
WIRE -144 544 -144 224
WIRE -128 544 -144 544
WIRE 112 544 32 544
WIRE 240 544 224 544
WIRE 464 544 448 544
WIRE 592 544 576 544
WIRE 592 576 592 544
FLAG 368 384 0
FLAG 592 656 0
FLAG 480 144 Vout
FLAG -96 224 0
SYMBOL ind 64 192 R270
WINDOW 0 32 56 VTop 2
WINDOW 3 5 56 VBottom 2
SYMATTR InstName L1
SYMATTR Value {Lo}
SYMBOL cap 384 288 R180
WINDOW 0 24 56 Left 2
WINDOW 3 24 8 Left 2
SYMATTR InstName C1
SYMATTR Value {Co}
SYMBOL res 464 208 R0
SYMATTR InstName R1
SYMATTR Value {Ro}
SYMBOL voltage -256 208 R0
WINDOW 3 -72 53 Left 2
WINDOW 123 0 0 Left 0
WINDOW 39 0 0 Left 0
SYMATTR Value 30
SYMATTR InstName V1
SYMBOL voltage 592 560 R0
WINDOW 3 41 53 Left 2
WINDOW 123 0 0 Left 0
WINDOW 39 0 0 Left 0
SYMATTR Value 8
SYMATTR InstName V2
SYMBOL LTspicePowerElectronics\\MathFunctions\\Gain 448 576 M0
SYMATTR Value K=1/12
SYMATTR InstName U6
SYMBOL LTspicePowerElectronics\\Sensors\\CurrentSensor 256 176 R0
SYMATTR Value K=1/12
SYMATTR InstName U4
SYMBOL LTspicePowerElectronics\\MathFunctions\\Limiter 96 576 M0
SYMATTR Value Vmax=0.999 Vmin=0.001
SYMATTR InstName U2
SYMBOL LTspicePowerElectronics\\Control\\Continuous\\PI_Controller 224 576 M0
SYMATTR Value Kc=3.45 wz=7255
SYMATTR InstName U3
SYMBOL LTspicePowerElectronics\\MathFunctions\\Subtractor 320 512 R180
SYMATTR InstName U5
SYMBOL diode 16 288 R180
WINDOW 0 24 64 Left 2
WINDOW 3 24 0 Left 2
SYMATTR InstName D1
SYMBOL sw -64 176 M270
SYMATTR InstName S1
SYMBOL LTspicePowerElectronics\\PWM\\BasicPWM -48 544 M0
SYMATTR InstName U1
TEXT -248 -208 Left 3 ;Buck converter - Output voltage control
TEXT -248 -120 Left 2 !.param Lo=750u Co=47u Ro=1.44
TEXT -248 -160 Left 2 ;Parameters
TEXT -248 -80 Left 2 !.model SW SW(Ron=0.01 Roff=1Meg Vt=0.5)
TEXT -248 -40 Left 2 !.model D D(Ron=0.1 Roff=1Meg Vfwd=0.4)
TEXT -248 64 Left 2 ;Simulation
TEXT -248 0 Left 2 !.tran 0 0.01 0 0.1u uic
TEXT 672 624 Left 2 ;Current Reference
TEXT 480 488 Left 2 ;Sensor gain
