Version 4
SHEET 1 1492 756
WIRE 784 160 784 128
WIRE 960 176 832 176
WIRE 960 192 960 176
WIRE -144 224 -256 224
WIRE 32 224 -64 224
WIRE 80 224 32 224
WIRE 224 224 160 224
WIRE 336 224 336 192
WIRE 336 224 224 224
WIRE 336 240 336 224
WIRE 432 240 336 240
WIRE 784 256 784 240
WIRE -256 272 -256 224
WIRE 32 272 32 224
WIRE 224 272 224 224
WIRE 336 272 336 240
WIRE 432 288 432 240
WIRE 464 288 432 288
WIRE 464 352 432 352
WIRE 784 368 784 336
WIRE 336 384 336 352
WIRE 432 384 432 352
WIRE 432 384 336 384
WIRE -256 400 -256 352
WIRE 32 400 32 336
WIRE 32 400 -256 400
WIRE 224 400 224 336
WIRE 224 400 32 400
WIRE 336 400 336 384
WIRE 336 400 224 400
WIRE 224 432 224 400
WIRE 592 496 592 320
WIRE -128 544 -128 272
WIRE -64 544 -128 544
WIRE 176 544 96 544
WIRE 320 544 288 544
WIRE 544 544 432 544
WIRE 656 544 640 544
WIRE 784 544 768 544
WIRE 784 576 784 544
FLAG -80 272 0
FLAG 224 432 0
FLAG 784 656 0
FLAG 336 192 Vout
FLAG 784 368 0
FLAG 784 128 Vout
FLAG 832 224 0
FLAG 960 272 0
SYMBOL ind 64 240 R270
WINDOW 0 32 56 VTop 2
WINDOW 3 5 56 VBottom 2
SYMATTR InstName L1
SYMATTR Value {Lo}
SYMBOL cap 240 336 R180
WINDOW 0 24 56 Left 2
WINDOW 3 24 8 Left 2
SYMATTR InstName C1
SYMATTR Value {Co}
SYMBOL res 320 256 R0
SYMATTR InstName R1
SYMATTR Value {2*Ro}
SYMBOL diode 48 336 R180
WINDOW 0 24 64 Left 2
WINDOW 3 24 0 Left 2
SYMATTR InstName D1
SYMBOL sw -48 224 M270
SYMATTR InstName S1
SYMBOL voltage -256 256 R0
WINDOW 3 -72 53 Left 2
WINDOW 123 0 0 Left 0
WINDOW 39 0 0 Left 0
SYMATTR InstName V1
SYMATTR Value 30
SYMBOL LTspicePowerElectronics\\PWM\\BasicPWM 16 544 M0
SYMATTR InstName U1
SYMBOL voltage 784 560 R0
WINDOW 3 41 53 Left 2
WINDOW 123 0 0 Left 0
WINDOW 39 0 0 Left 0
SYMATTR InstName V2
SYMATTR Value 12
SYMBOL LTspicePowerElectronics\\Control\\Continuous\\PI_Controller 304 576 M0
SYMATTR Value Kc=3.456 wz=1079
SYMATTR InstName U2
SYMBOL LTspicePowerElectronics\\MathFunctions\\Limiter 160 576 M0
SYMATTR Value Vmax=1 Vmin=0
SYMATTR InstName U3
SYMBOL LTspicePowerElectronics\\Sensors\\VoltageSensor 464 320 R0
SYMATTR Value K=1/19.5
SYMATTR InstName U4
SYMBOL LTspicePowerElectronics\\MathFunctions\\Subtractor 512 512 R180
SYMATTR InstName U5
SYMBOL LTspicePowerElectronics\\MathFunctions\\Gain 640 576 M0
SYMATTR Value K1=1/19.5
SYMATTR InstName U6
SYMBOL res 768 240 R0
SYMATTR InstName R2
SYMATTR Value {2*Ro}
SYMBOL sw 784 256 R180
SYMATTR InstName S2
SYMBOL voltage 960 176 R0
WINDOW 123 0 0 Left 0
WINDOW 39 0 0 Left 0
SYMATTR InstName V3
SYMATTR Value PULSE(1 0 0.003 1n 1n 0.005 0.01 1000)
TEXT -248 -208 Left 3 ;Buck converter - Output voltage control
TEXT -248 -120 Left 2 !.param Lo=750uH Co=47uF Ro=1.44
TEXT -248 -160 Left 2 ;Parameters
TEXT -248 -40 Left 2 !.model SW SW(Ron=10m Roff=1Meg Vt=0.5)
TEXT -248 0 Left 2 !.model D D(Ron=.1 Roff=1Meg Vfwd=.4)
TEXT -248 112 Left 2 ;Simulation
TEXT -250 40 Left 2 !.tran 0 0.01 0 uic
TEXT 880 616 Left 2 ;Voltage Reference
TEXT 664 488 Left 2 ;Sensor gain
TEXT 840 96 Left 3 ;50% Load Step
TEXT 440 224 Left 2 ;Voltage Sensor
RECTANGLE Normal 1488 416 672 32 2
