Version 4
SHEET 1 880 680
WIRE -48 -800 -288 -800
WIRE 192 -800 -48 -800
WIRE 368 -800 368 -832
WIRE 368 -800 192 -800
WIRE 512 -800 368 -800
WIRE -288 -768 -288 -800
WIRE -224 -768 -288 -768
WIRE -48 -768 -48 -800
WIRE 16 -768 -48 -768
WIRE 192 -768 192 -800
WIRE 256 -768 192 -768
WIRE -288 -736 -288 -768
WIRE -224 -736 -224 -768
WIRE -48 -736 -48 -768
WIRE 16 -736 16 -768
WIRE 192 -736 192 -768
WIRE 256 -736 256 -768
WIRE -336 -720 -368 -720
WIRE -96 -720 -128 -720
WIRE 144 -720 112 -720
WIRE -288 -624 -288 -656
WIRE -224 -624 -224 -672
WIRE -224 -624 -288 -624
WIRE -48 -624 -48 -656
WIRE 16 -624 16 -672
WIRE 16 -624 -48 -624
WIRE 192 -624 192 -656
WIRE 256 -624 256 -672
WIRE 256 -624 192 -624
WIRE -992 -544 -1056 -544
WIRE -736 -544 -912 -544
WIRE -288 -544 -288 -624
WIRE -288 -544 -656 -544
WIRE 368 -496 368 -800
WIRE 512 -496 512 -800
WIRE -1056 -448 -1056 -544
WIRE -992 -448 -1056 -448
WIRE -736 -448 -912 -448
WIRE -48 -448 -48 -624
WIRE -48 -448 -656 -448
WIRE -1056 -352 -1056 -448
WIRE -992 -352 -1056 -352
WIRE -736 -352 -912 -352
WIRE 192 -352 192 -624
WIRE 192 -352 -656 -352
WIRE -288 -336 -288 -544
WIRE -224 -336 -288 -336
WIRE -48 -336 -48 -448
WIRE 16 -336 -48 -336
WIRE 192 -336 192 -352
WIRE 256 -336 192 -336
WIRE -288 -304 -288 -336
WIRE -224 -304 -224 -336
WIRE -48 -304 -48 -336
WIRE 16 -304 16 -336
WIRE 192 -304 192 -336
WIRE 256 -304 256 -336
WIRE -336 -288 -368 -288
WIRE -96 -288 -128 -288
WIRE 144 -288 112 -288
WIRE -288 -192 -288 -224
WIRE -224 -192 -224 -240
WIRE -224 -192 -288 -192
WIRE -48 -192 -48 -224
WIRE 16 -192 16 -240
WIRE 16 -192 -48 -192
WIRE 192 -192 192 -224
WIRE 256 -192 256 -240
WIRE 256 -192 192 -192
WIRE -288 -112 -288 -192
WIRE -48 -112 -48 -192
WIRE -48 -112 -288 -112
WIRE 192 -112 192 -192
WIRE 192 -112 -48 -112
WIRE 368 -112 368 -432
WIRE 368 -112 192 -112
WIRE 512 -112 512 -416
WIRE 512 -112 368 -112
WIRE 368 -80 368 -112
WIRE -160 80 -224 80
WIRE 144 80 -80 80
WIRE 400 96 368 96
WIRE 144 128 144 80
WIRE 400 128 368 128
WIRE 400 160 368 160
WIRE -224 176 -224 80
WIRE -224 176 -256 176
WIRE -160 176 -224 176
WIRE 144 176 -80 176
WIRE 400 192 368 192
WIRE -256 208 -256 176
WIRE 400 224 368 224
WIRE 400 256 368 256
WIRE -224 272 -224 176
WIRE -160 272 -224 272
WIRE 144 272 144 224
WIRE 144 272 -80 272
FLAG 400 96 m1
FLAG 400 128 m2
FLAG 400 160 m3
FLAG 400 192 m4
FLAG 400 224 m5
FLAG 400 256 m6
FLAG -256 208 0
FLAG 368 -832 +Vo
FLAG 368 -80 0
FLAG -336 -672 0
FLAG -96 -672 0
FLAG 144 -672 0
FLAG 144 -240 0
FLAG -96 -240 0
FLAG -336 -240 0
FLAG -368 -720 m1
FLAG -128 -720 m3
FLAG -128 -288 m4
FLAG -368 -288 m2
FLAG 112 -288 m6
FLAG 112 -720 m5
SYMBOL LTspicePowerElectronics\\PWM\\3phSVPWM 256 176 R0
SYMATTR InstName U1
SYMBOL voltage -64 80 R90
WINDOW 0 -32 76 VBottom 2
WINDOW 3 -102 41 Invisible 2
WINDOW 123 0 0 Left 0
WINDOW 39 0 0 Left 0
SYMATTR InstName V1
SYMATTR Value SINE(0 .8 60 0 0 0 1000000)
SYMBOL voltage -64 176 R90
WINDOW 0 -32 76 VBottom 2
WINDOW 3 -56 32 Invisible 2
WINDOW 123 0 0 Left 0
WINDOW 39 0 0 Left 0
SYMATTR InstName V2
SYMATTR Value SINE(0 .8 60 0 0 -120 1000000)
SYMBOL voltage -64 272 R90
WINDOW 0 -32 78 VBottom 2
WINDOW 3 -58 35 Invisible 2
WINDOW 123 0 0 Left 0
WINDOW 39 0 0 Left 0
SYMATTR InstName V3
SYMATTR Value SINE(0 .8 60 0 0 120 1000000)
SYMBOL cap 352 -496 R0
WINDOW 3 -103 -29 Left 2
SYMATTR Value 330µf ic=700
SYMATTR InstName C1
SYMBOL ind -752 -528 R270
WINDOW 0 32 56 VTop 2
WINDOW 3 5 56 VBottom 2
SYMATTR InstName L1
SYMATTR Value {Lb}
SYMBOL ind -752 -432 R270
WINDOW 0 32 56 VTop 2
WINDOW 3 5 56 VBottom 2
SYMATTR InstName L2
SYMATTR Value {Lb}
SYMBOL ind -752 -336 R270
WINDOW 0 32 56 VTop 2
WINDOW 3 5 56 VBottom 2
SYMATTR InstName L3
SYMATTR Value {Lb}
SYMBOL sw -288 -640 M180
WINDOW 0 8 5 Left 2
WINDOW 3 7 104 Left 2
SYMATTR InstName S1
SYMBOL diode -208 -672 R180
WINDOW 0 -25 65 Left 2
WINDOW 3 -13 5 Left 2
SYMATTR InstName D1
SYMBOL diode -208 -240 R180
WINDOW 0 -25 65 Left 2
WINDOW 3 -13 5 Left 2
SYMATTR InstName D2
SYMBOL diode 32 -672 R180
WINDOW 0 -25 65 Left 2
WINDOW 3 -13 5 Left 2
SYMATTR InstName D3
SYMBOL diode 32 -240 R180
WINDOW 0 -25 65 Left 2
WINDOW 3 -13 5 Left 2
SYMATTR InstName D4
SYMBOL diode 272 -672 R180
WINDOW 0 -25 65 Left 2
WINDOW 3 -13 5 Left 2
SYMATTR InstName D5
SYMBOL diode 272 -240 R180
WINDOW 0 -25 65 Left 2
WINDOW 3 -13 5 Left 2
SYMATTR InstName D6
SYMBOL sw -288 -208 M180
WINDOW 0 8 5 Left 2
WINDOW 3 7 104 Left 2
SYMATTR InstName S2
SYMBOL sw -48 -640 M180
WINDOW 0 8 5 Left 2
WINDOW 3 7 104 Left 2
SYMATTR InstName S3
SYMBOL sw -48 -208 M180
WINDOW 0 8 5 Left 2
WINDOW 3 7 104 Left 2
SYMATTR InstName S4
SYMBOL sw 192 -640 M180
WINDOW 0 8 5 Left 2
WINDOW 3 7 104 Left 2
SYMATTR InstName S5
SYMBOL sw 192 -208 M180
WINDOW 0 8 5 Left 2
WINDOW 3 7 104 Left 2
SYMATTR InstName S6
SYMBOL res -896 -560 R90
WINDOW 0 0 56 VBottom 2
WINDOW 3 32 56 VTop 2
SYMATTR InstName R1
SYMATTR Value 7.26
SYMBOL res -896 -464 R90
WINDOW 0 0 56 VBottom 2
WINDOW 3 32 56 VTop 2
SYMATTR InstName R2
SYMATTR Value 7.26
SYMBOL res -896 -368 R90
WINDOW 0 0 56 VBottom 2
WINDOW 3 32 56 VTop 2
SYMATTR InstName R3
SYMATTR Value 7.26
SYMBOL voltage 512 -512 R0
WINDOW 0 -32 76 VBottom 2
WINDOW 3 -102 41 Invisible 2
WINDOW 123 0 0 Left 0
WINDOW 39 0 0 Left 0
SYMATTR InstName V4
SYMATTR Value 700
TEXT -280 -1088 Left 2 !.tran 40m
TEXT -272 -1056 Left 2 !.param Lb=2000u
TEXT -272 -1016 Left 2 !.model SW SW(Ron=10m Roff=1Meg Vt=0.5)
TEXT -272 -976 Left 2 !.model D D(Ron=.1 Roff=1Meg Vfwd=.4)
TEXT -272 -1208 Left 4 ;Inversor Trifásico 2-Niveis
TEXT -272 -1144 Left 3 ;Configurações
